Version 4
SHEET 1 1396 680
WIRE -16 -192 -208 -192
WIRE 112 -192 64 -192
WIRE 160 -192 112 -192
WIRE 304 -192 240 -192
WIRE 384 -192 304 -192
WIRE 560 -192 560 -256
WIRE 560 -192 384 -192
WIRE 640 -192 560 -192
WIRE 976 -192 640 -192
WIRE 976 -176 976 -192
WIRE 640 -96 640 -192
WIRE 976 -80 976 -96
WIRE 976 -80 688 -80
WIRE -208 80 -208 -192
WIRE 640 96 640 0
WIRE 112 112 112 -192
WIRE 304 112 304 -192
WIRE 384 112 384 -192
WIRE -208 208 -208 160
WIRE 640 224 640 176
WIRE 640 224 528 224
WIRE 688 224 640 224
WIRE 784 224 752 224
WIRE 528 240 528 224
WIRE 784 240 784 224
WIRE -208 368 -208 288
WIRE 112 368 112 176
WIRE 112 368 -208 368
WIRE 304 368 304 176
WIRE 304 368 112 368
WIRE 384 368 384 176
WIRE 384 368 304 368
WIRE 528 368 528 304
WIRE 528 368 384 368
WIRE 784 368 784 320
WIRE 784 368 528 368
WIRE 112 400 112 368
FLAG 112 400 0
FLAG 560 -256 VsupplyAL53
SYMBOL res 256 -208 R90
WINDOW 0 0 56 VBottom 2
WINDOW 3 32 56 VTop 2
SYMATTR InstName R2
SYMATTR Value 1.8k
SYMBOL res 768 224 R0
SYMATTR InstName R3
SYMATTR Value 220k
SYMBOL res 80 -208 R90
WINDOW 0 0 56 VBottom 2
WINDOW 3 32 56 VTop 2
SYMATTR InstName R1
SYMATTR Value 1.8k
SYMBOL cap 96 112 R0
SYMATTR InstName C1
SYMATTR Value 4.7µ
SYMBOL voltage -208 192 R0
WINDOW 123 0 0 Left 0
WINDOW 39 24 124 Left 2
SYMATTR SpiceLine Rser=1
SYMATTR InstName V1
SYMATTR Value 8
SYMBOL voltage -208 64 R0
WINDOW 123 0 0 Left 0
WINDOW 39 0 0 Left 0
SYMATTR InstName V2
SYMATTR Value SINE(0 0.2 50k 0)
SYMBOL cap 288 112 R0
SYMATTR InstName C2
SYMATTR Value 4.7µ
SYMBOL cap 368 112 R0
SYMATTR InstName C3
SYMATTR Value 0µ
SYMBOL res 624 80 R0
SYMATTR InstName R4
SYMATTR Value 270k
SYMBOL diode 688 240 R270
WINDOW 0 32 32 VTop 2
WINDOW 3 0 32 VBottom 2
SYMATTR InstName D1
SYMATTR Value 1N4148
SYMBOL voltage 976 -192 R0
WINDOW 123 0 0 Left 0
WINDOW 39 0 0 Left 0
SYMATTR InstName V3
SYMATTR Value PULSE(0 5 30u 1n 1n 150u 10m 10)
SYMBOL pmos 688 0 R180
SYMATTR InstName M1
SYMATTR Value myPMOS
SYMBOL zener 544 304 R180
WINDOW 0 24 64 Left 2
WINDOW 3 24 0 Left 2
SYMATTR InstName D2
SYMATTR Value BZX384B3V3
TEXT -240 424 Left 2 !.tran 0 100m 0 100n
TEXT 744 32 Left 2 !.model myPMOS PMOS(LEVEL=2 KP=1.0E-3 VTO=-3)
